OPT_V9/8ts_w_storgae_myc_NEW_PARAM/powerflow_results_t6.txt
Pandapower Network Debug Info
==================================================

BUS:
       vm_pu  va_degree      p_mw    q_mvar
0   1.006208   0.276526 -0.002990 -0.000096
1   1.010158   0.452079 -0.004291 -0.000231
2   1.012201   0.561025 -0.002466  0.000227
3   1.008626   0.383959 -0.003655  0.000000
4   1.002192   0.240483 -0.001955  0.001128
5   1.005880   0.274390 -0.002704 -0.000310
6   1.009976   0.488011 -0.005070  0.000398
7   1.004063   0.172549 -0.005918 -0.000207
8   1.000892   0.056106 -0.004002 -0.000341
9   0.999961   0.001055  0.003985  0.008491
10  0.999954   0.001030  0.004259  0.006950
11  0.999950   0.000894  0.008028  0.001393
12  0.999973   0.002638  0.005883  0.004864
13  0.999967   0.002626  0.003965  0.005967
14  0.999962   0.002540  0.006932  0.002333
15  0.999983   0.000871  0.000000  0.000000
16  0.999984   0.000871  0.000000  0.000000
17  0.999976   0.002632  0.000000  0.000000
18  0.999976   0.002633  0.000000  0.000000
19  1.000000   0.000000 -0.003013 -0.021830
20  1.000000   0.000003  0.000000  0.000000
21  1.000000   0.000000  0.002745 -0.018915
22  1.000000   0.000002  0.000000  0.000000
--------------------------------------------------

LINE:
    p_from_mw   q_from_mvar   p_to_mw  q_to_mvar         pl_mw       ql_mvar  i_from_ka   i_to_ka      i_ka  vm_from_pu  va_from_degree  vm_to_pu  va_to_degree  loading_percent
0    0.003003  1.783029e-02 -0.003003  -0.017830  3.197909e-07  2.493463e-07   0.000696  0.000696  0.000696    1.000000        0.000003  0.999983      0.000871         0.302590
1   -0.002755  1.491500e-02  0.002755  -0.014915  6.187930e-07  4.824831e-07   0.000584  0.000584  0.000584    1.000000        0.000002  0.999976      0.002632         0.253821
2    0.016273  1.683438e-02 -0.016272  -0.016834  4.239208e-07  3.305381e-07   0.000901  0.000901  0.000901    0.999983        0.000871  0.999961      0.001055         0.391826
3    0.005883  4.863981e-03 -0.005883  -0.004864  2.015019e-08  1.571144e-08   0.000294  0.000294  0.000294    0.999976        0.002632  0.999973      0.002638         0.127742
4    0.010897  8.300888e-03 -0.010897  -0.008301  1.026100e-07  8.000672e-08   0.000527  0.000527  0.000527    0.999976        0.002632  0.999967      0.002626         0.229247
5   -0.013279 -4.254682e-06  0.013362   0.000069  8.248155e-05  6.431223e-05   0.019167  0.019167  0.019167    0.999984        0.000871  1.006208      0.276526         8.333678
6   -0.007706  1.412687e-04  0.007752  -0.000105  4.608207e-05  3.593095e-05   0.011124  0.011124  0.011124    0.999976        0.002633  1.005880      0.274390         4.836573
7   -0.005895 -1.888663e-04  0.005918   0.000207  2.350003e-05  1.832336e-05   0.008513  0.008513  0.008513    0.999976        0.002633  1.004063      0.172549         3.701166
8   -0.005945  7.973484e-04  0.005951  -0.000793  6.186254e-06  4.823524e-06   0.008658  0.008658  0.008658    0.999976        0.002633  1.000892      0.056106         3.764264
9   -0.012287 -8.342683e-03  0.012288   0.008343  7.628911e-08  5.948388e-08   0.000572  0.000572  0.000572    0.999954        0.001030  0.999961      0.001055         0.248556
10  -0.008028 -1.392924e-03  0.008028   0.001393  3.247307e-08  2.531979e-08   0.000314  0.000314  0.000314    0.999950        0.000894  0.999954      0.001030         0.136363
11  -0.006932 -2.333352e-03  0.006932   0.002333  2.616236e-08  2.039922e-08   0.000282  0.000282  0.000282    0.999962        0.002540  0.999967      0.002626         0.122398
12   0.006752  3.497860e-07 -0.006725   0.000020  2.642904e-05  2.060716e-05   0.009647  0.009647  0.009647    1.010158        0.452079  1.006208      0.276526         4.194392
13   0.003655  1.249716e-09 -0.003647   0.000007  8.769150e-06  6.837450e-06   0.005231  0.005231  0.005231    1.008626        0.383959  1.006208      0.276526         2.274284
14   0.002466 -2.267378e-04 -0.002460   0.000231  5.413138e-06  4.220713e-06   0.003531  0.003531  0.003531    1.012201        0.561025  1.010158      0.452079         1.535144
15  -0.001949  1.133262e-03  0.001955  -0.001128  6.173350e-06  4.813463e-06   0.003251  0.003251  0.003251    1.000892        0.056106  1.002192      0.240483         1.413548
16   0.005070 -3.977715e-04 -0.005047   0.000415  2.207060e-05  1.720881e-05   0.007267  0.007267  0.007267    1.009976        0.488011  1.005880      0.274390         3.159685
--------------------------------------------------

TRAFO:
    p_hv_mw  q_hv_mvar   p_lv_mw  q_lv_mvar    pl_mw  ql_mvar   i_hv_ka   i_lv_ka  vm_hv_pu  va_hv_degree  vm_lv_pu  va_lv_degree  loading_percent
0 -0.013269   0.000996  0.013279   0.000004  0.00001    0.001  0.000512  0.019167  0.999983      0.000871  0.999984      0.000871         0.133069
1 -0.019535   0.001750  0.019545  -0.000750  0.00001    0.001  0.000755  0.028232  0.999976      0.002632  0.999976      0.002633         0.196137
2  0.003013   0.021830 -0.003003  -0.017830  0.00001    0.004  0.000182  0.000696  1.000000      0.000000  1.000000      0.000003         0.055093
3 -0.002745   0.018915  0.002755  -0.014915  0.00001    0.004  0.000158  0.000584  1.000000      0.000000  1.000000      0.000002         0.047783
--------------------------------------------------
